<?xml version="1.0" encoding="UTF-8"?>

<!-- generated on 2024-09-25 12:13:17 by Eclipse SUMO netedit Version 1.18.0
<configuration xmlns:xsi="http://www.w3.org/2001/XMLSchema-instance" xsi:noNamespaceSchemaLocation="http://sumo.dlr.de/xsd/neteditConfiguration.xsd">

    <input>
        <sumo-net-file value="C:\Users\psmalz12\OneDrive\PGR\pycharm\RLMODEL\1b1-2.net.xml"/>
    </input>

    <output>
        <output-file value="C:\Users\psmalz12\OneDrive\PGR\pycharm\RLMODEL\1b1-2.net.xml"/>
    </output>

    <processing>
        <geometry.min-radius.fix.railways value="false"/>
        <geometry.max-grade.fix value="false"/>
        <offset.disable-normalization value="true"/>
        <lefthand value="0"/>
    </processing>

    <junctions>
        <no-turnarounds value="true"/>
        <junctions.corner-detail value="5"/>
        <junctions.limit-turn-speed value="5.50"/>
        <rectangular-lane-cut value="0"/>
    </junctions>

    <pedestrian>
        <walkingareas value="0"/>
    </pedestrian>

</configuration>
-->

<net version="1.16" junctionCornerDetail="5" limitTurnSpeed="5.50" xmlns:xsi="http://www.w3.org/2001/XMLSchema-instance" xsi:noNamespaceSchemaLocation="http://sumo.dlr.de/xsd/net_file.xsd">

    <location netOffset="0.00,0.00" convBoundary="-41.05,1.65,105.01,99.31" origBoundary="-10000000000.00,-10000000000.00,10000000000.00,10000000000.00" projParameter="!"/>

    <edge id=":J1_0" function="internal">
        <lane id=":J1_0_0" index="0" speed="6.51" length="9.03" shape="31.20,59.61 30.85,57.16 29.80,55.41 28.05,54.36 25.60,54.01"/>
    </edge>
    <edge id=":J1_1" function="internal">
        <lane id=":J1_1_0" index="0" speed="13.89" length="14.40" shape="31.20,59.61 31.20,45.21"/>
    </edge>
    <edge id=":J1_2" function="internal">
        <lane id=":J1_2_0" index="0" speed="6.51" length="9.03" shape="40.00,54.01 37.55,54.36 35.80,55.41 34.75,57.16 34.40,59.61"/>
    </edge>
    <edge id=":J1_3" function="internal">
        <lane id=":J1_3_0" index="0" speed="13.89" length="14.40" shape="40.00,54.01 25.60,54.01"/>
    </edge>
    <edge id=":J1_4" function="internal">
        <lane id=":J1_4_0" index="0" speed="6.51" length="9.03" shape="34.40,45.21 34.75,47.66 35.80,49.41 37.55,50.46 40.00,50.81"/>
    </edge>
    <edge id=":J1_5" function="internal">
        <lane id=":J1_5_0" index="0" speed="13.89" length="14.40" shape="34.40,45.21 34.40,59.61"/>
    </edge>
    <edge id=":J1_6" function="internal">
        <lane id=":J1_6_0" index="0" speed="6.51" length="9.03" shape="25.60,50.81 28.05,50.46 29.80,49.41 30.85,47.66 31.20,45.21"/>
    </edge>
    <edge id=":J1_7" function="internal">
        <lane id=":J1_7_0" index="0" speed="13.89" length="14.40" shape="25.60,50.81 40.00,50.81"/>
    </edge>


    <edge id="-E0" from="J1" to="J0" priority="-1">
        <lane id="-E0_0" index="0" speed="13.89" length="66.65" shape="25.60,54.01 -41.05,54.01"/>
    </edge>
    <edge id="-E1" from="J2" to="J1" priority="-1">
        <lane id="-E1_0" index="0" speed="13.89" length="65.01" shape="105.01,54.01 40.00,54.01"/>
    </edge>
    <edge id="-E2" from="J3" to="J1" priority="-1">
        <lane id="-E2_0" index="0" speed="13.89" length="43.56" shape="34.40,1.65 34.40,45.21"/>
    </edge>
    <edge id="-E3" from="J4" to="J1" priority="-1">
        <lane id="-E3_0" index="0" speed="13.89" length="39.70" shape="31.19,99.31 31.20,59.61"/>
    </edge>
    <edge id="E0" from="J0" to="J1" priority="-1">
        <lane id="E0_0" index="0" speed="13.89" length="66.65" shape="-41.05,50.81 25.60,50.81"/>
    </edge>
    <edge id="E1" from="J1" to="J2" priority="-1">
        <lane id="E1_0" index="0" speed="13.89" length="65.01" shape="40.00,50.81 105.01,50.81"/>
    </edge>
    <edge id="E2" from="J1" to="J3" priority="-1">
        <lane id="E2_0" index="0" speed="13.89" length="43.56" shape="31.20,45.21 31.20,1.65"/>
    </edge>
    <edge id="E3" from="J1" to="J4" priority="-1">
        <lane id="E3_0" index="0" speed="13.89" length="39.70" shape="34.40,59.61 34.39,99.31"/>
    </edge>

    <tlLogic id="J1" type="static" programID="0" offset="0">
        <phase duration="50" state="rrrrrrGG"/>      <!-- 0 - West - East - phase 0-->
        <phase duration="3"  state="rrrrrryy"/>
        <phase duration="2"  state="rrrrrrrr"/>
        <phase duration="50" state="rrrrGGrr"/>      <!-- 3 - South - North - phase 3 -->
        <phase duration="3"  state="rrrryyrr"/>
        <phase duration="2"  state="rrrrrrrr"/>
        <phase duration="50" state="rrGGrrrr"/>     <!-- 6 - East - West - phase 6-->
        <phase duration="3"  state="rryyrrrr"/>
        <phase duration="2"  state="rrrrrrrr"/>
        <phase duration="50" state="GGrrrrrr"/>     <!-- 9 -  North - South - phase 9-->
        <phase duration="3"  state="yyrrrrrr"/>
        <phase duration="2"  state="rrrrrrrr"/>
    </tlLogic>

    <junction id="J0" type="dead_end" x="-41.05" y="52.41" incLanes="-E0_0" intLanes="" shape="-41.05,52.41 -41.05,55.61 -41.05,52.41"/>
    <junction id="J1" type="traffic_light" x="32.80" y="52.41" incLanes="-E3_0 -E1_0 -E2_0 E0_0" intLanes=":J1_0_0 :J1_1_0 :J1_2_0 :J1_3_0 :J1_4_0 :J1_5_0 :J1_6_0 :J1_7_0" shape="29.60,59.61 36.00,59.61 36.44,57.39 37.00,56.61 37.78,56.05 38.78,55.72 40.00,55.61 40.00,49.21 37.78,48.77 37.00,48.21 36.44,47.43 36.11,46.43 36.00,45.21 29.60,45.21 29.16,47.43 28.60,48.21 27.82,48.77 26.82,49.10 25.60,49.21 25.60,55.61 27.82,56.05 28.60,56.61 29.15,57.39 29.49,58.39">
        <request index="0" response="00001000" foes="00001000" cont="0"/>
        <request index="1" response="11001000" foes="11001000" cont="0"/>
        <request index="2" response="00000000" foes="00100000" cont="0"/>
        <request index="3" response="00000000" foes="00100011" cont="0"/>
        <request index="4" response="10000000" foes="10000000" cont="0"/>
        <request index="5" response="10001100" foes="10001100" cont="0"/>
        <request index="6" response="00000000" foes="00000010" cont="0"/>
        <request index="7" response="00000000" foes="00110010" cont="0"/>
    </junction>
    <junction id="J2" type="dead_end" x="105.01" y="52.41" incLanes="E1_0" intLanes="" shape="105.01,52.41 105.01,49.21 105.01,52.41"/>
    <junction id="J3" type="dead_end" x="32.80" y="1.65" incLanes="E2_0" intLanes="" shape="32.80,1.65 29.60,1.65 32.80,1.65"/>
    <junction id="J4" type="dead_end" x="32.79" y="99.31" incLanes="E3_0" intLanes="" shape="32.79,99.31 35.99,99.31 32.79,99.31"/>

    <connection from="-E1" to="E3" fromLane="0" toLane="0" via=":J1_2_0" tl="J1" linkIndex="2" dir="r" state="O"/>
    <connection from="-E1" to="-E0" fromLane="0" toLane="0" via=":J1_3_0" tl="J1" linkIndex="3" dir="s" state="O"/>
    <connection from="-E2" to="E1" fromLane="0" toLane="0" via=":J1_4_0" tl="J1" linkIndex="4" dir="r" state="o"/>
    <connection from="-E2" to="E3" fromLane="0" toLane="0" via=":J1_5_0" tl="J1" linkIndex="5" dir="s" state="o"/>
    <connection from="-E3" to="-E0" fromLane="0" toLane="0" via=":J1_0_0" tl="J1" linkIndex="0" dir="r" state="o"/>
    <connection from="-E3" to="E2" fromLane="0" toLane="0" via=":J1_1_0" tl="J1" linkIndex="1" dir="s" state="o"/>
    <connection from="E0" to="E2" fromLane="0" toLane="0" via=":J1_6_0" tl="J1" linkIndex="6" dir="r" state="O"/>
    <connection from="E0" to="E1" fromLane="0" toLane="0" via=":J1_7_0" tl="J1" linkIndex="7" dir="s" state="O"/>

    <connection from=":J1_0" to="-E0" fromLane="0" toLane="0" dir="r" state="M"/>
    <connection from=":J1_1" to="E2" fromLane="0" toLane="0" dir="s" state="M"/>
    <connection from=":J1_2" to="E3" fromLane="0" toLane="0" dir="r" state="M"/>
    <connection from=":J1_3" to="-E0" fromLane="0" toLane="0" dir="s" state="M"/>
    <connection from=":J1_4" to="E1" fromLane="0" toLane="0" dir="r" state="M"/>
    <connection from=":J1_5" to="E3" fromLane="0" toLane="0" dir="s" state="M"/>
    <connection from=":J1_6" to="E2" fromLane="0" toLane="0" dir="r" state="M"/>
    <connection from=":J1_7" to="E1" fromLane="0" toLane="0" dir="s" state="M"/>

</net>
